&NAM_DIAG 
LTPZH=.TRUE.,
LCHEMDIAG = .TRUE./
&NAM_CONFIO  LCDF4=T, LLFIOUT=F, LLFIREAD=F /
&NAM_CONFZ
 ! NZ_VERB=5 , NZ_PROC=0 , NB_PROCIO_R=8 , NB_PROCIO_W=1
/

&NAM_DIAG_FILE      YINIFILE(1) = "initial_file",
                    YINIFILEPGD(1) = "initial_file_pgd",
                    YSUFFIX='dgg' /
