&NAM_CONFZ  MPI_BUFFER_SIZE=100/
&NAM_DIAG 
CISO='TKPREV',
LVAR_RS=T, 
LTPZH=.TRUE.,
LVAR_PR=.TRUE.,
LTOTAL_PR=.TRUE.,
CBLTOP="RICHA",
LCLD_COV=T,
LLIMA_DIAG = T,
LVAR_TURB=T,
LTURBFLX=.TRUE.,
LTURBDIAG=T,
LMOIST_V=.TRUE.,
LMOIST_E=.TRUE.,
LMOIST_ES=.TRUE.,
NRAD_3D=4,
LCHEMDIAG = .TRUE./
&NAM_CONFIO  LCDF4=T, LLFIOUT=F, LLFIREAD=F /

&NAM_DIAG_FILE      YINIFILE(1) = "LOCA3.1.AEROF.002",
                    YINIFILEPGD(1) = "initial_file_pgd",
                    YSUFFIX='dgg' /

